* MMBT3904
.SUBCKT MMBT3904 1 2 3
* C B E
Q1 1 2 3 Q
.MODEL Q NPN (IS=1.26532e-10 BF=206.302 NF=1.5 VAF=1000)
.ENDS
